Version 4
SHEET 1 904 680
WIRE 112 -64 -160 -64
WIRE 256 -64 112 -64
WIRE 512 -64 256 -64
WIRE 656 -64 512 -64
WIRE 256 16 256 -64
WIRE 112 64 112 16
WIRE 192 64 112 64
WIRE 112 80 112 64
WIRE 336 112 256 112
WIRE -256 160 -336 160
WIRE -128 160 -192 160
WIRE 112 160 112 144
WIRE 112 160 -48 160
WIRE 416 160 416 112
WIRE 496 160 416 160
WIRE 624 160 560 160
WIRE 640 160 624 160
WIRE 112 192 112 160
WIRE 336 224 256 224
WIRE 416 224 416 160
WIRE -336 240 -336 160
WIRE 112 272 112 256
WIRE 192 272 112 272
WIRE 112 304 112 272
WIRE -336 384 -336 320
WIRE -64 384 -336 384
WIRE 112 384 -64 384
WIRE 256 384 256 320
WIRE 256 384 112 384
FLAG -160 0 0
FLAG 512 0 0
FLAG 656 16 0
FLAG -64 384 0
FLAG 640 240 0
FLAG -336 160 input
FLAG 624 160 output
SYMBOL npn 192 16 R0
SYMATTR InstName Q1
SYMATTR Value 2N2222
SYMBOL diode 96 80 R0
SYMATTR InstName D1
SYMATTR Value 1N4148
SYMBOL diode 96 192 R0
WINDOW 3 -73 61 Left 2
SYMATTR InstName D2
SYMATTR Value 1N4148
SYMBOL res 96 -80 R0
SYMATTR InstName R1
SYMATTR Value 1k
SYMBOL res 96 288 R0
SYMATTR InstName R2
SYMATTR Value 1k
SYMBOL res 432 96 R90
WINDOW 0 0 56 VBottom 2
WINDOW 3 32 56 VTop 2
SYMATTR InstName R3
SYMATTR Value 4.7
SYMBOL res 432 208 R90
WINDOW 0 0 56 VBottom 2
WINDOW 3 32 56 VTop 2
SYMATTR InstName R4
SYMATTR Value 4.7
SYMBOL cap 560 144 R90
WINDOW 0 0 32 VBottom 2
WINDOW 3 32 32 VTop 2
SYMATTR InstName C1
SYMATTR Value 220µF
SYMBOL res -32 144 R90
WINDOW 0 0 56 VBottom 2
WINDOW 3 32 56 VTop 2
SYMATTR InstName R6
SYMATTR Value 1k
SYMBOL cap -192 144 R90
WINDOW 0 0 32 VBottom 2
WINDOW 3 32 32 VTop 2
SYMATTR InstName C2
SYMATTR Value 15µF
SYMBOL voltage -336 224 R0
WINDOW 123 24 124 Left 2
WINDOW 39 0 0 Left 0
SYMATTR InstName V1
SYMATTR Value SINE(2.5 2.5 2K)
SYMBOL cap -176 -64 R0
SYMATTR InstName C3
SYMATTR Value 10µF
SYMBOL cap 496 -64 R0
SYMATTR InstName C4
SYMATTR Value 100µF
SYMBOL voltage 656 -80 R0
WINDOW 123 0 0 Left 0
WINDOW 39 0 0 Left 0
SYMATTR InstName V2
SYMATTR Value 5V
SYMBOL res 624 144 R0
SYMATTR InstName R5
SYMATTR Value 8
SYMBOL pnp 192 320 M180
WINDOW 3 51 60 Left 2
SYMATTR InstName Q2
SYMATTR Value 2N2907
TEXT -370 394 Left 2 !.tran 20ms
