Version 4
SHEET 1 1596 680
WIRE 752 -320 384 -320
WIRE 1024 -320 752 -320
WIRE 1120 -320 1024 -320
WIRE 384 -256 384 -320
WIRE 1024 -256 1024 -320
WIRE 752 -192 752 -320
WIRE 384 -144 384 -176
WIRE 688 -144 384 -144
WIRE 384 -112 384 -144
WIRE 1184 -80 1072 -80
WIRE 752 -32 752 -96
WIRE 864 -32 752 -32
WIRE 1008 -32 944 -32
WIRE 384 16 384 -48
WIRE 1008 16 1008 -32
WIRE 1072 16 1072 -80
WIRE 1184 16 1184 -80
WIRE 864 80 752 80
WIRE 1008 80 1008 16
WIRE 1008 80 944 80
WIRE 1152 80 1152 16
WIRE -144 96 -176 96
WIRE -32 96 -144 96
WIRE 96 96 32 96
WIRE 144 96 96 96
WIRE 384 96 384 80
WIRE 384 96 224 96
WIRE 576 96 384 96
WIRE -176 144 -176 96
WIRE 384 144 384 96
WIRE 752 160 752 80
WIRE 96 192 96 96
WIRE 320 192 96 192
WIRE 576 208 576 96
WIRE 688 208 576 208
WIRE 96 224 96 192
WIRE -176 256 -176 224
WIRE 96 336 96 304
WIRE 384 336 384 240
WIRE 384 336 96 336
WIRE 752 336 752 256
WIRE 752 336 384 336
FLAG 1024 -192 0
FLAG 384 336 0
FLAG -176 256 0
FLAG 1200 -320 0
FLAG -144 96 Input
IOPIN -144 96 In
FLAG 1184 16 Output
IOPIN 1184 16 Out
FLAG 1152 80 0
SYMBOL cap 32 80 R90
WINDOW 0 0 32 VBottom 2
WINDOW 3 32 32 VTop 2
SYMATTR InstName C1
SYMATTR Value 15µ
SYMBOL cap 1040 -192 R180
WINDOW 0 24 56 Left 2
WINDOW 3 24 8 Left 2
SYMATTR InstName C2
SYMATTR Value 100µ
SYMBOL npn 320 144 R0
SYMATTR InstName Q1
SYMATTR Value 2N2222
SYMBOL res 80 208 R0
SYMATTR InstName R1
SYMATTR Value 33K
SYMBOL res 240 80 R90
WINDOW 0 0 56 VBottom 2
WINDOW 3 32 56 VTop 2
SYMATTR InstName R2
SYMATTR Value 1K
SYMBOL diode 368 16 R0
SYMATTR InstName D1
SYMATTR Value 1N4148
SYMBOL diode 368 -112 R0
SYMATTR InstName D2
SYMATTR Value 1N4148
SYMBOL res 368 -272 R0
SYMATTR InstName R3
SYMATTR Value 1K
SYMBOL npn 688 -192 R0
SYMATTR InstName Q2
SYMATTR Value 2N2222
SYMBOL pnp 688 256 M180
SYMATTR InstName Q3
SYMATTR Value 2N2907
SYMBOL res 960 -48 R90
WINDOW 0 0 56 VBottom 2
WINDOW 3 32 56 VTop 2
SYMATTR InstName R4
SYMATTR Value 4.7
SYMBOL res 960 64 R90
WINDOW 0 0 56 VBottom 2
WINDOW 3 32 56 VTop 2
SYMATTR InstName R5
SYMATTR Value 4.7
SYMBOL cap 1072 0 R90
WINDOW 0 0 32 VBottom 2
WINDOW 3 32 32 VTop 2
SYMATTR InstName C3
SYMATTR Value 220µ
SYMBOL voltage -176 128 R0
WINDOW 123 24 124 Left 2
WINDOW 39 0 0 Left 0
SYMATTR Value2 AC 1
SYMATTR InstName V1
SYMATTR Value SINE(2.5 0.5 1000)
SYMBOL res 1168 0 R90
WINDOW 0 0 56 VBottom 2
WINDOW 3 32 56 VTop 2
SYMATTR InstName R6
SYMATTR Value 8
SYMBOL voltage 1104 -320 R270
WINDOW 0 32 56 VTop 2
WINDOW 3 -32 56 VBottom 2
WINDOW 123 0 0 Left 0
WINDOW 39 0 0 Left 0
SYMATTR InstName V2
SYMATTR Value 10V
TEXT 1392 -184 Left 2 !.tran 0.002
TEXT 1368 -288 Left 2 !.op
