Version 4
SHEET 1 1924 680
WIRE -400 -32 -480 -32
WIRE -480 -16 -480 -32
WIRE 192 16 160 16
WIRE 304 16 256 16
WIRE 832 128 576 128
WIRE 16 144 -96 144
WIRE 80 144 80 16
WIRE 80 144 16 144
WIRE 192 144 176 144
WIRE 16 160 16 144
WIRE 304 160 304 16
WIRE 304 160 256 160
WIRE 384 160 304 160
WIRE 80 176 80 144
WIRE 192 176 80 176
WIRE 576 208 576 128
WIRE 608 208 576 208
WIRE 16 224 16 208
WIRE 832 224 832 128
WIRE 832 224 672 224
WIRE -96 240 -96 224
WIRE -48 240 -96 240
WIRE 16 240 16 224
WIRE 16 240 -48 240
WIRE 608 240 384 240
WIRE 1632 240 1632 224
WIRE 1664 240 1632 240
WIRE 1680 240 1664 240
WIRE 1792 240 1760 240
WIRE 384 256 384 240
WIRE -48 272 -48 240
WIRE 0 272 -48 272
WIRE 64 272 0 272
WIRE 176 272 176 144
WIRE 176 272 144 272
WIRE 224 272 176 272
WIRE 304 272 304 160
WIRE 1744 304 1744 288
WIRE 1792 304 1744 304
WIRE 1872 304 1872 240
WIRE 1744 336 1744 304
WIRE 1872 352 1872 304
WIRE 1744 448 1744 416
FLAG -496 160 5V
FLAG -496 240 0
FLAG 224 128 5V
FLAG -480 64 0
FLAG -480 -112 5V
FLAG -400 -32 vGND
FLAG 0 272 vGND
FLAG 224 192 0
FLAG 1872 352 0
FLAG 1744 528 0
FLAG 384 336 0
FLAG 640 256 0
FLAG 640 192 5V
FLAG 832 304 0
SYMBOL voltage -496 144 R0
WINDOW 123 0 0 Left 0
WINDOW 39 0 0 Left 0
SYMATTR InstName V1
SYMATTR Value 5
SYMBOL res 160 256 R90
WINDOW 0 0 56 VBottom 2
WINDOW 3 32 56 VTop 2
SYMATTR InstName R2
SYMATTR Value 47k
SYMBOL cap 0 160 R0
SYMATTR InstName C1
SYMATTR Value 1µ
SYMBOL cap 256 0 R90
WINDOW 0 0 32 VBottom 2
WINDOW 3 32 32 VTop 2
SYMATTR InstName C2
SYMATTR Value 1µ
SYMBOL res 176 0 R90
WINDOW 0 0 56 VBottom 2
WINDOW 3 32 56 VTop 2
SYMATTR InstName R3
SYMATTR Value 80
SYMBOL res -112 128 R0
SYMATTR InstName R4
SYMATTR Value 80
SYMATTR SpiceLine tol=1 pwr=0.1
SYMBOL res 320 256 R90
WINDOW 0 0 56 VBottom 2
WINDOW 3 32 56 VTop 2
SYMATTR InstName R1
SYMATTR Value 100K
SYMATTR SpiceLine tol=1 pwr=0.1
SYMBOL res -496 -128 R0
WINDOW 3 -56 51 Left 2
SYMATTR Value 10K
SYMATTR InstName R5
SYMBOL res -496 -32 R0
WINDOW 3 -66 55 Left 2
SYMATTR Value 10K
SYMATTR InstName R6
SYMBOL nmos 1664 288 R270
SYMATTR InstName M1
SYMBOL res 1728 320 R0
SYMATTR InstName R7
SYMATTR Value 100
SYMBOL res 1888 288 R90
WINDOW 0 83 54 VBottom 2
WINDOW 3 32 56 VTop 2
SYMATTR InstName R8
SYMATTR Value 1K
SYMBOL voltage 1744 432 R0
WINDOW 123 0 0 Left 0
WINDOW 39 0 0 Left 0
SYMATTR InstName V2
SYMATTR Value 3.3V
SYMBOL res 1888 224 R90
WINDOW 0 0 56 VBottom 2
WINDOW 3 32 56 VTop 2
SYMATTR InstName R9
SYMATTR Value 1Meg
SYMBOL Opamps\\LT1492 224 96 R0
SYMATTR InstName U1
SYMBOL res 368 144 R0
SYMATTR InstName R12
SYMATTR Value 19K
SYMBOL res 368 240 R0
SYMATTR InstName R13
SYMATTR Value 1K
SYMBOL Opamps\\LT1492 640 160 R0
SYMATTR InstName U2
SYMBOL res 848 320 R180
WINDOW 0 36 76 Left 2
WINDOW 3 36 40 Left 2
SYMATTR InstName R14
SYMATTR Value 1Meg
TEXT -640 264 Left 2 !.tran 1 startup
TEXT 40 408 Left 2 ;Wien Bridge
TEXT 40 448 Left 2 ;f = 1/(2 * pi * R * C)
